
<routes xmlns:xsi="http://www.w3.org/2001/XMLSchema-instance" xsi:noNamespaceSchemaLocation="http://sumo.dlr.de/xsd/routes_file.xsd">
    <flow id="flow_0" begin="0.00" from="gneE0" to="gneE1" end="1.00" number="1"/>
    <flow id="flow_1" begin="0.00" from="gneE2" to="gneE3" end="1.00" number="1"/>
    <flow id="flow_2" begin="0.00" from="gneE4" to="gneE5" end="1.00" number="1"/>
    <flow id="flow_3" begin="0.00" from="gneE6" to="gneE7" end="1.00" number="1"/>
    <flow id="flow_4" begin="0.00" from="gneE8" to="gneE9" end="1.00" number="1"/>
    <!--<flow id="flow_5" begin="0.00" from="gneE8" to="gneE8" end="1.00" number="1"/>-->
</routes>
